*SRC=S1A;DI_S1A;Diodes;Si;  50.0V  1.00A  3.00us   Diodes Inc. Rectifier
.MODEL DI_S1A D  ( IS=7.31e-018 RS=42.0m BV=50.0 IBV=5.00u
+ CJO=42.4p  M=0.333 N=0.775 TT=4.32u )
